Version 4
SHEET 1 1020 680
WIRE 448 -336 368 -336
WIRE 208 -304 144 -304
WIRE 448 -304 448 -336
WIRE -64 -288 -112 -288
WIRE 64 -288 16 -288
WIRE 208 -272 144 -272
WIRE 64 -256 16 -256
WIRE 176 -240 144 -240
WIRE 16 -144 16 -256
WIRE 64 -144 16 -144
WIRE 176 -144 176 -240
WIRE 176 -144 144 -144
WIRE 240 -144 176 -144
WIRE 368 -144 368 -256
WIRE 368 -144 320 -144
WIRE 560 -144 496 -144
WIRE 832 -144 832 -160
WIRE 960 -144 960 -160
WIRE 368 -128 368 -144
WIRE 416 -128 368 -128
WIRE 16 -112 16 -144
WIRE 560 -112 496 -112
WIRE 416 -96 368 -96
WIRE 544 -80 496 -80
WIRE -112 -48 -112 -288
WIRE -112 -48 -256 -48
WIRE 832 -32 832 -64
WIRE 896 -32 832 -32
WIRE 960 -32 960 -64
WIRE 960 -32 896 -32
WIRE -256 -16 -256 -48
WIRE 16 -16 16 -32
WIRE 32 -16 16 -16
WIRE 80 -16 32 -16
WIRE 208 -16 160 -16
WIRE 240 -16 208 -16
WIRE 368 -16 368 -96
WIRE 368 -16 320 -16
WIRE 544 -16 544 -80
WIRE 608 -16 544 -16
WIRE -112 0 -112 -48
WIRE 896 16 896 -32
WIRE 368 32 368 -16
WIRE 416 32 368 32
WIRE 544 32 544 -16
WIRE 544 32 496 32
WIRE 608 32 608 -16
WIRE 208 80 208 -16
WIRE 272 80 208 80
WIRE -112 112 -112 80
WIRE -80 112 -112 112
WIRE 16 112 0 112
WIRE 608 144 608 112
WIRE -256 176 -256 64
WIRE 736 192 736 176
WIRE 736 192 704 192
WIRE 768 192 736 192
WIRE 944 192 944 176
WIRE 944 192 912 192
WIRE 976 192 944 192
WIRE 704 208 704 192
WIRE 768 208 768 192
WIRE 912 208 912 192
WIRE 976 208 976 192
WIRE 208 224 160 224
WIRE 16 240 16 112
WIRE 80 240 16 240
WIRE 208 256 160 256
WIRE 32 272 32 -16
WIRE 80 272 32 272
WIRE 272 288 272 80
WIRE 272 288 160 288
WIRE 704 304 704 272
WIRE 768 304 768 272
WIRE 768 304 704 304
WIRE 832 304 768 304
WIRE 912 304 912 272
WIRE 912 304 832 304
WIRE 976 304 976 272
WIRE 976 304 912 304
WIRE 832 336 832 304
WIRE -112 368 -112 112
WIRE -112 512 -112 448
FLAG -256 176 0
FLAG -112 512 0
FLAG 896 16 0
FLAG 832 -160 Vcc+
FLAG 960 -160 Vcc-
FLAG 560 -112 0
FLAG 448 -304 0
FLAG 832 336 0
FLAG 736 176 Vcc+
FLAG 944 176 Vcc-
FLAG 608 144 0
FLAG -112 -48 Vbat
FLAG -112 112 Vs
FLAG 208 256 0
FLAG 208 224 Vcc+
FLAG 208 -304 Vcc+
FLAG 208 -272 0
FLAG 560 -144 Vcc+
SYMBOL res -128 -16 R0
SYMATTR InstName R1
SYMATTR Value 1
SYMATTR SpiceLine tol=.01
SYMBOL voltage -256 -32 R0
WINDOW 123 0 0 Left 2
WINDOW 39 0 0 Left 2
SYMATTR InstName V1
SYMATTR Value 5
SYMBOL res 336 -160 R90
WINDOW 0 0 56 VBottom 2
WINDOW 3 32 56 VTop 2
SYMATTR InstName R2
SYMATTR Value 1k
SYMBOL res 336 -32 R90
WINDOW 0 0 56 VBottom 2
WINDOW 3 32 56 VTop 2
SYMATTR InstName R3
SYMATTR Value 1k
SYMBOL AutoGenerated\\AD8629 448 -112 R0
SYMATTR InstName U1
SYMBOL current -112 368 R0
WINDOW 123 0 0 Left 2
WINDOW 39 0 0 Left 2
SYMATTR InstName I1
SYMATTR Value 1m
SYMBOL res 512 16 R90
WINDOW 0 0 56 VBottom 2
WINDOW 3 32 56 VTop 2
SYMATTR InstName R4
SYMATTR Value 200k
SYMBOL voltage 832 -160 R0
WINDOW 123 0 0 Left 2
WINDOW 39 0 0 Left 2
SYMATTR InstName V2
SYMATTR Value 5
SYMBOL voltage 960 -48 R180
WINDOW 123 0 0 Left 2
WINDOW 39 0 0 Left 2
SYMATTR InstName V3
SYMATTR Value 5
SYMBOL res 352 -352 R0
SYMATTR InstName R5
SYMATTR Value 200k
SYMBOL cap 688 208 R0
SYMATTR InstName C1
SYMATTR Value 1µ
SYMBOL cap 752 208 R0
SYMATTR InstName C2
SYMATTR Value .1µ
SYMBOL cap 896 208 R0
SYMATTR InstName C3
SYMATTR Value 1µ
SYMBOL cap 960 208 R0
SYMATTR InstName C4
SYMATTR Value .1µ
SYMBOL res 592 16 R0
SYMATTR InstName R6
SYMATTR Value 10k
SYMBOL AutoGenerated\\AD8629 96 -272 R0
SYMATTR InstName U2
SYMBOL res -80 -272 R270
WINDOW 0 32 56 VTop 2
WINDOW 3 0 56 VBottom 2
SYMATTR InstName R7
SYMATTR Value 1k
SYMBOL res 48 -128 R270
WINDOW 0 32 56 VTop 2
WINDOW 3 0 56 VBottom 2
SYMATTR InstName R8
SYMATTR Value 1k
SYMBOL res 0 -128 R0
SYMATTR InstName R10
SYMATTR Value 200
SYMBOL AutoGenerated\\AD8629 112 256 R0
SYMATTR InstName U4
SYMBOL res -96 128 R270
WINDOW 0 32 56 VTop 2
WINDOW 3 0 56 VBottom 2
SYMATTR InstName R11
SYMATTR Value 1k
SYMBOL res 176 -32 R90
WINDOW 0 0 56 VBottom 2
WINDOW 3 32 56 VTop 2
SYMATTR InstName R9
SYMATTR Value 1k
TEXT 696 -312 Left 2 !.dc I1 100u 10u 1u
