Version 4
SHEET 1 2532 980
WIRE 1088 -816 1024 -816
WIRE 960 -800 800 -800
WIRE 1120 -784 1024 -784
WIRE 960 -768 896 -768
WIRE 1248 -752 1024 -752
WIRE 896 -640 896 -768
WIRE 960 -640 896 -640
WIRE 1088 -640 960 -640
WIRE 1248 -640 1248 -752
WIRE 1248 -640 1152 -640
WIRE 960 -544 960 -640
WIRE 1072 -544 960 -544
WIRE 1248 -544 1248 -640
WIRE 1248 -544 1152 -544
WIRE -144 -528 -144 -608
WIRE 0 -528 -144 -528
WIRE 112 -528 64 -528
WIRE 960 -528 960 -544
WIRE -528 -432 -528 -544
WIRE -336 -432 -336 -560
WIRE 960 -400 960 -448
WIRE -144 -352 -144 -528
WIRE -48 -352 -144 -352
WIRE 96 -352 32 -352
WIRE -528 -256 -528 -352
WIRE -336 -256 -336 -352
WIRE 96 -224 96 -352
WIRE 144 -224 96 -224
WIRE 528 -192 352 -192
WIRE 640 -192 528 -192
WIRE 672 -192 640 -192
WIRE 800 -192 752 -192
WIRE 896 -192 800 -192
WIRE 96 -144 96 -224
WIRE 144 -144 144 -224
WIRE 192 -144 192 -320
WIRE 352 -144 352 -192
WIRE -144 -128 -144 -352
WIRE 528 -112 528 -192
WIRE 640 -96 640 -192
WIRE 800 -96 800 -192
WIRE 1792 -80 1760 -80
WIRE 1088 -64 992 -64
WIRE 1232 -64 1168 -64
WIRE 1296 -64 1232 -64
WIRE 1424 -64 1376 -64
WIRE 1696 -64 1424 -64
WIRE 1824 -48 1760 -48
WIRE 1424 -32 1424 -64
WIRE 1696 -32 1552 -32
WIRE 1904 -16 1760 -16
WIRE 1424 80 1424 32
WIRE 1376 176 1312 176
WIRE 1552 176 1552 -32
WIRE 1552 176 1456 176
WIRE 1904 176 1904 -16
WIRE 1904 176 1552 176
WIRE -144 208 -144 -48
WIRE -32 208 -144 208
WIRE 96 208 96 48
WIRE 96 208 48 208
WIRE 192 208 192 48
WIRE 528 208 528 -32
WIRE 640 208 640 -32
WIRE 800 208 800 -32
WIRE -144 304 -144 208
WIRE 1232 304 1232 -64
WIRE 1456 304 1232 304
WIRE 1904 304 1904 176
WIRE 1904 304 1520 304
WIRE -144 448 -144 384
FLAG -336 -256 0
FLAG -336 -560 Vcc
FLAG 112 -528 0
FLAG -528 -256 0
FLAG -528 -544 VBAT
FLAG -144 -608 VBAT
FLAG -144 448 0
FLAG 192 -320 Vcc
FLAG 192 208 0
FLAG 528 208 0
FLAG 1088 -816 Vcc
FLAG 1120 -784 0
FLAG 960 -400 0
FLAG 800 208 0
FLAG 800 -800 S1_OUT
FLAG 1792 -80 Vcc
FLAG 1424 80 0
FLAG 1312 176 0
FLAG 1824 -48 0
FLAG 992 -64 S2_OUT
FLAG 1248 -752 S2_OUT
FLAG 640 208 0
FLAG 896 -192 S1_OUT
SYMBOL voltage -336 -448 R0
WINDOW 123 0 0 Left 2
WINDOW 39 0 0 Left 2
SYMATTR InstName V1
SYMATTR Value 5
SYMBOL cap 0 -512 R270
WINDOW 0 32 32 VTop 2
WINDOW 3 0 32 VBottom 2
SYMATTR InstName C3
SYMATTR Value .1µ
SYMBOL voltage -528 -448 R0
WINDOW 123 0 0 Left 2
WINDOW 39 0 0 Left 2
SYMATTR InstName V3
SYMATTR Value {V_BAT_P}
SYMBOL res -160 -144 R0
SYMATTR InstName R3
SYMATTR Value 1
SYMATTR SpiceLine tol=0.01 pwr=100m
SYMBOL current -144 304 R0
WINDOW 123 47 58 Left 2
WINDOW 39 0 0 Left 2
WINDOW 3 -50 -14 Left 2
WINDOW 0 39 22 Left 2
SYMATTR Value 0
SYMATTR InstName IMCU
SYMBOL res 48 -368 R90
WINDOW 0 0 56 VBottom 2
WINDOW 3 32 56 VTop 2
SYMATTR InstName R1
SYMATTR Value 10
SYMATTR SpiceLine tol=.1
SYMBOL res 544 -16 R180
WINDOW 0 36 76 Left 2
WINDOW 3 36 40 Left 2
SYMATTR InstName R4
SYMATTR Value 10k
SYMATTR SpiceLine tol=.1
SYMBOL Opamps\\LTC6102 208 -48 R270
SYMATTR InstName U1
SYMBOL res 768 -208 R90
WINDOW 0 0 56 VBottom 2
WINDOW 3 32 56 VTop 2
SYMATTR InstName R2
SYMATTR Value 6.2k
SYMBOL cap 816 -32 R180
WINDOW 0 24 56 Left 2
WINDOW 3 24 8 Left 2
SYMATTR InstName C1
SYMATTR Value 1n
SYMBOL cap 1088 -624 R270
WINDOW 0 32 32 VTop 2
WINDOW 3 0 32 VBottom 2
SYMATTR InstName C2
SYMATTR Value 10p
SYMBOL res 1168 -560 R90
WINDOW 0 0 56 VBottom 2
WINDOW 3 32 56 VTop 2
SYMATTR InstName R5
SYMATTR Value 90k
SYMBOL res 976 -432 R180
WINDOW 0 36 76 Left 2
WINDOW 3 36 40 Left 2
SYMATTR InstName R6
SYMATTR Value 10k
SYMBOL res 1392 -80 R90
WINDOW 0 0 56 VBottom 2
WINDOW 3 32 56 VTop 2
SYMATTR InstName R7
SYMATTR Value 10k
SYMBOL res 1184 -80 R90
WINDOW 0 0 56 VBottom 2
WINDOW 3 32 56 VTop 2
SYMATTR InstName R8
SYMATTR Value 10k
SYMBOL cap 1408 -32 R0
SYMATTR InstName C4
SYMATTR Value 1n
SYMBOL cap 1520 288 R90
WINDOW 0 0 32 VBottom 2
WINDOW 3 32 32 VTop 2
SYMATTR InstName C5
SYMATTR Value 1n
SYMBOL res 1472 160 R90
WINDOW 0 0 56 VBottom 2
WINDOW 3 32 56 VTop 2
SYMATTR InstName R9
SYMATTR Value 10k
SYMBOL cap 656 -32 R180
WINDOW 0 24 56 Left 2
WINDOW 3 24 8 Left 2
SYMATTR InstName C6
SYMATTR Value 1n
SYMBOL res 64 192 R90
WINDOW 0 0 56 VBottom 2
WINDOW 3 32 56 VTop 2
SYMATTR InstName R10
SYMATTR Value 9
SYMATTR SpiceLine tol=.1
SYMBOL AutoGenerated\\amp_tlv27x_highVdd 992 -784 R0
SYMATTR InstName U4
SYMBOL AutoGenerated\\amp_tlv27x_highVdd 1728 -48 R0
SYMATTR InstName U5
TEXT -576 72 Left 2 ;.step param V_BAT_P 2.5 3.0 0.1
TEXT -576 128 Left 2 !.param V_BAT_P 4
TEXT -576 0 Left 2 !.dc dec IMCU 0 250u 1000
TEXT 400 -256 Left 2 ;2nd Order Low Pass 10Khz Filter
TEXT 160 -448 Left 2 ;1st Stage x1000 gain, LTC6102 High Side Current Sense
TEXT 848 -912 Left 2 ;2nd Stage x10 gain, TLV271 Opamp
TEXT 1024 -296 Left 2 ;Pre-ADC output filter, low pass sallen Key 2nd order 10kHz. TLV272 Opam
