Version 4
SHEET 1 2528 980
WIRE -976 -368 -976 -448
WIRE -832 -368 -976 -368
WIRE -720 -368 -768 -368
WIRE -1392 -240 -1392 -352
WIRE -1200 -240 -1200 -368
WIRE -1120 -240 -1120 -368
WIRE -976 -192 -976 -368
WIRE -880 -192 -976 -192
WIRE -736 -192 -800 -192
WIRE -976 -80 -976 -192
WIRE -768 -80 -976 -80
WIRE -1392 -64 -1392 -160
WIRE -1200 -64 -1200 -160
WIRE -1120 -64 -1120 -160
WIRE -976 48 -976 -80
WIRE -800 48 -864 48
WIRE -768 48 -768 -80
WIRE -752 48 -768 48
WIRE -560 48 -608 48
WIRE -800 80 -800 48
WIRE -752 80 -800 80
WIRE -752 112 -800 112
WIRE -864 144 -864 128
WIRE -800 144 -800 112
WIRE -800 144 -864 144
WIRE -752 144 -768 144
WIRE -560 144 -608 144
WIRE -976 272 -976 128
WIRE -768 272 -768 144
WIRE -768 272 -976 272
WIRE -976 464 -976 272
WIRE -976 608 -976 544
FLAG -1200 -64 0
FLAG -1200 -368 Vcc
FLAG -720 -368 0
FLAG -1392 -64 0
FLAG -1392 -352 VBAT
FLAG -976 -448 VBAT
FLAG -976 608 0
FLAG -1120 -64 0
FLAG -1120 -368 Vee
FLAG -560 144 Vee
FLAG -560 48 Vcc
SYMBOL AutoGenerated\\AD8422 -688 96 M180
SYMATTR InstName U1
SYMBOL voltage -1200 -256 R0
WINDOW 123 0 0 Left 2
WINDOW 39 0 0 Left 2
SYMATTR InstName V1
SYMATTR Value 5
SYMBOL cap -832 -352 R270
WINDOW 0 32 32 VTop 2
WINDOW 3 0 32 VBottom 2
SYMATTR InstName C1
SYMATTR Value .1µ
SYMBOL voltage -1392 -256 R0
WINDOW 123 0 0 Left 2
WINDOW 39 0 0 Left 2
SYMATTR InstName V2
SYMATTR Value {V_BAT_P}
SYMBOL res -992 32 R0
SYMATTR InstName R2
SYMATTR Value 1
SYMATTR SpiceLine tol=0.01 pwr=100m
SYMBOL current -976 464 R0
WINDOW 123 47 58 Left 2
WINDOW 39 0 0 Left 2
WINDOW 3 -50 -14 Left 2
WINDOW 0 39 22 Left 2
SYMATTR Value 0
SYMATTR InstName IMCU1
SYMBOL res -784 -208 R90
WINDOW 0 0 56 VBottom 2
WINDOW 3 32 56 VTop 2
SYMATTR InstName R3
SYMATTR Value 10
SYMATTR SpiceLine tol=.1
SYMBOL voltage -1120 -256 R0
WINDOW 123 0 0 Left 2
WINDOW 39 0 0 Left 2
SYMATTR InstName V3
SYMATTR Value -5
SYMBOL res -880 32 R0
SYMATTR InstName R1
TEXT -1408 232 Left 2 ;.step param V_BAT_P 2.5 3.0 0.1
TEXT -1408 288 Left 2 !.param V_BAT_P 4
TEXT -1408 160 Left 2 !.dc dec IMCU 0 250u 1000
TEXT -672 -288 Left 2 ;1st Stage x1000 gain, LTC6102 High Side Current Sense
