Version 4
SHEET 1 2532 980
WIRE -144 -528 -144 -608
WIRE 0 -528 -144 -528
WIRE 112 -528 64 -528
WIRE -528 -432 -528 -544
WIRE -336 -432 -336 -560
WIRE -144 -352 -144 -528
WIRE -48 -352 -144 -352
WIRE 96 -352 32 -352
WIRE -528 -256 -528 -352
WIRE -336 -256 -336 -352
WIRE 96 -224 96 -352
WIRE 144 -224 96 -224
WIRE 1328 -208 1280 -208
WIRE 528 -192 352 -192
WIRE 640 -192 528 -192
WIRE 688 -192 640 -192
WIRE 800 -192 768 -192
WIRE 896 -192 800 -192
WIRE 1168 -192 1072 -192
WIRE 1360 -176 1280 -176
WIRE 1168 -160 1088 -160
WIRE 96 -144 96 -224
WIRE 144 -144 144 -224
WIRE 192 -144 192 -320
WIRE 352 -144 352 -192
WIRE 1440 -144 1280 -144
WIRE 1520 -144 1440 -144
WIRE 1632 -144 1600 -144
WIRE 1744 -144 1632 -144
WIRE -144 -128 -144 -352
WIRE 528 -112 528 -192
WIRE 640 -96 640 -192
WIRE 800 -96 800 -192
WIRE 1632 -64 1632 -144
WIRE 1088 -32 1088 -160
WIRE 1152 -32 1088 -32
WIRE 1280 -32 1152 -32
WIRE 1440 -32 1440 -144
WIRE 1440 -32 1344 -32
WIRE 1152 64 1152 -32
WIRE 1264 64 1152 64
WIRE 1440 64 1440 -32
WIRE 1440 64 1344 64
WIRE 1632 64 1632 0
WIRE 1152 80 1152 64
WIRE -144 208 -144 -48
WIRE -32 208 -144 208
WIRE 96 208 96 48
WIRE 96 208 48 208
WIRE 192 208 192 48
WIRE 528 208 528 -32
WIRE 640 208 640 -32
WIRE 800 208 800 -32
WIRE 1152 208 1152 160
WIRE -144 304 -144 208
WIRE -144 448 -144 384
FLAG -336 -256 0
FLAG -336 -560 Vcc
FLAG 112 -528 0
FLAG -528 -256 0
FLAG -528 -544 VBAT
FLAG -144 -608 VBAT
FLAG -144 448 0
FLAG 192 -320 Vcc
FLAG 192 208 0
FLAG 528 208 0
FLAG 1328 -208 Vcc
FLAG 1360 -176 0
FLAG 1152 208 0
FLAG 800 208 0
FLAG 1072 -192 S1_OUT
FLAG 640 208 0
FLAG 896 -192 S1_OUT
FLAG 1744 -144 S2_OUT
FLAG 1632 64 0
SYMBOL voltage -336 -448 R0
WINDOW 123 0 0 Left 2
WINDOW 39 0 0 Left 2
SYMATTR InstName V1
SYMATTR Value 5
SYMBOL cap 0 -512 R270
WINDOW 0 32 32 VTop 2
WINDOW 3 0 32 VBottom 2
SYMATTR InstName C3
SYMATTR Value .1µ
SYMBOL voltage -528 -448 R0
WINDOW 123 0 0 Left 2
WINDOW 39 0 0 Left 2
SYMATTR InstName V3
SYMATTR Value {V_BAT_P}
SYMBOL res -160 -144 R0
SYMATTR InstName R3
SYMATTR Value 1
SYMATTR SpiceLine tol=0.01 pwr=100m
SYMBOL current -144 304 R0
WINDOW 123 47 58 Left 2
WINDOW 39 0 0 Left 2
WINDOW 3 -50 -14 Left 2
WINDOW 0 39 22 Left 2
SYMATTR Value 0
SYMATTR InstName IMCU
SYMBOL res 48 -368 R90
WINDOW 0 0 56 VBottom 2
WINDOW 3 32 56 VTop 2
SYMATTR InstName R1
SYMATTR Value 10
SYMATTR SpiceLine tol=.1
SYMBOL res 544 -16 R180
WINDOW 0 36 76 Left 2
WINDOW 3 36 40 Left 2
SYMATTR InstName R4
SYMATTR Value 10k
SYMATTR SpiceLine tol=.1
SYMBOL Opamps\\LTC6102 208 -48 R270
SYMATTR InstName U1
SYMBOL res 784 -208 R90
WINDOW 0 0 56 VBottom 2
WINDOW 3 32 56 VTop 2
SYMATTR InstName R2
SYMATTR Value 6.2k
SYMBOL cap 816 -32 R180
WINDOW 0 24 56 Left 2
WINDOW 3 24 8 Left 2
SYMATTR InstName C1
SYMATTR Value 1n
SYMBOL cap 1280 -16 R270
WINDOW 0 32 32 VTop 2
WINDOW 3 0 32 VBottom 2
SYMATTR InstName C2
SYMATTR Value 10p
SYMBOL res 1360 48 R90
WINDOW 0 0 56 VBottom 2
WINDOW 3 32 56 VTop 2
SYMATTR InstName R5
SYMATTR Value 90k
SYMBOL res 1168 176 R180
WINDOW 0 36 76 Left 2
WINDOW 3 36 40 Left 2
SYMATTR InstName R6
SYMATTR Value 10k
SYMBOL cap 656 -32 R180
WINDOW 0 24 56 Left 2
WINDOW 3 24 8 Left 2
SYMATTR InstName C6
SYMATTR Value 1n
SYMBOL res 64 192 R90
WINDOW 0 0 56 VBottom 2
WINDOW 3 32 56 VTop 2
SYMATTR InstName R10
SYMATTR Value 9
SYMATTR SpiceLine tol=.1
SYMBOL AutoGenerated\\ADA4528 1232 -176 R0
SYMATTR InstName U2
SYMBOL res 1616 -160 R90
WINDOW 0 0 56 VBottom 2
WINDOW 3 32 56 VTop 2
SYMATTR InstName R7
SYMATTR Value 120
SYMBOL cap 1616 -64 R0
SYMATTR InstName C4
SYMATTR Value 100n
TEXT -576 72 Left 2 ;.step param V_BAT_P 2.5 3.0 0.1
TEXT -576 128 Left 2 !.param V_BAT_P 4
TEXT -576 0 Left 2 !.dc IMCU 0 50u 0.001u
TEXT 400 -256 Left 2 ;2nd Order Low Pass 10Khz Filter
TEXT 160 -448 Left 2 ;1st Stage x1000 gain, LTC6102 High Side Current Sense
TEXT 1040 -304 Left 2 ;2nd Stage x100 gain,  ADA4528 Opamp
TEXT 568 376 Left 2 ;There is no need for very low output votage in second stage since we will have the amplified first stage voltage offset
